/*--------------------------------*- C++ -*----------------------------------*\
| =========                 |                                                 |
| \\      /  F ield         | OpenFOAM: The Open Source CFD Toolbox           |
|  \\    /   O peration     | Version:  5.0                                   |
|   \\  /    A nd           | Web:      www.OpenFOAM.org                      |
|    \\/     M anipulation  |                                                 |
\*---------------------------------------------------------------------------*/
FoamFile {
  version     4.0;
  format      ascii;
  class       dictionary;
  location    "constant/porousMat";
  object      porousMatProperties;
}

// * * * * * * * * * * * * * * * * * * * * * * * * * * * * * * * * * * * * * //

/****************************** GENERAL ************************************/
//debug yes;
movingMesh      no;
/****************************** end GENERAL ********************************/

/****************************** IO *****************************************/
IO {
  writeFields(); // write fields in the time folders
  probingFunctions
  (
  ); // name of sampling/probing dictionaries in "system/porousMat"
}
/****************************** END IO ************************************/

/****************************** ENERGY ************************************/
Energy {
  EnergyType PureConduction; // Solve the temperature equation
}
/****************************** END ENERGY ********************************/

/****************************** MATERIAL PROPERTIES  ************************/
MaterialProperties {
  MaterialPropertiesType PureConduction;
  MaterialPropertiesDirectory "$FOAM_CASE/DATA";
  virginOrChar char;
}
/****************************** END MATERIAL PROPERTIES  ********************/

