/*--------------------------------*- C++ -*----------------------------------*\
  =========                 |
  \\      /  F ield         | OpenFOAM: The Open Source CFD Toolbox
   \\    /   O peration     | Website:  https://openfoam.org
    \\  /    A nd           | Version:  7
     \\/     M anipulation  |
\*---------------------------------------------------------------------------*/
FoamFile
{
    version     2.0;
    format      ascii;
    class       polyBoundaryMesh;
    location    "constant/porousMat/polyMesh";
    object      boundary;
}
// * * * * * * * * * * * * * * * * * * * * * * * * * * * * * * * * * * * * * //

6
(
    axis
    {
        type            empty;
        inGroups        List<word> 1(empty);
        nFaces          50;
        startFace       9850;
    }
    back
    {
        type            wall;
        inGroups        List<word> 1(wall);
        nFaces          50;
        startFace       9900;
    }
    wedge-right
    {
        type            wedge;
        inGroups        List<word> 1(wedge);
        nFaces          5000;
        startFace       9950;
    }
    wedge-left
    {
        type            wedge;
        inGroups        List<word> 1(wedge);
        nFaces          5000;
        startFace       14950;
    }
    outer
    {
        type            wall;
        inGroups        List<word> 1(wall);
        nFaces          100;
        startFace       19950;
    }
    inner
    {
        type            wall;
        inGroups        List<word> 1(wall);
        nFaces          100;
        startFace       20050;
    }
)

// ************************************************************************* //
