/*--------------------------------*- C++ -*----------------------------------* \
  | =========                 |                                             |
  | \\      /  F ield         | OpenFOAM: The Open Source CFD Toolbox      |
  |  \\    /   O peration     | Version:  5.0                                   |
  |   \\  /    A nd           | Web:      www.OpenFOAM.org                 |
  |    \\/     M anipulation  |                                                 |
  \*---------------------------------------------------------------------------*/
FoamFile {
  version     2.0;
  format      ascii;
  class       dictionary;
  object      blockMeshDict;
}
// * * * * * * * * * * * * * * * * * * * * * * * * * * * * * * * * * * * * * //

// Creating a 2D axi mesh for a the leading edges geoemetry

convertToMeters 1.;

vertices
(
 (-0.300000 0.000000 0.000001)    // 0
 (0.000000 0.298858 0.026148)    // 1
 (0.000000 0.149429 0.013074)    // 2
 (-0.150000 0.000000 0.000001)    // 3
  
 (-0.300000 0.000000 -0.000001)   // 4
 (0.000000 0.298858 -0.026148)   // 5
 (0.000000 0.149429 -0.013074)   // 6
 (-0.150000 0.000000 -0.000001)   // 7
 );
blocks
( 
 // WEDGE FRONT
 hex (0 1 2 3 4 5 6 7) (50 100 1) simpleGrading  (1 10 1)
  );

edges
(
 // ARC CONNECTION
 arc 0 1  (-0.212132 0.211325 0.018490)
 arc 4 5  (-0.212132 0.211325 -0.018490)
 arc 2 3  (-0.106066 0.105662 0.009245)
 arc 6 7  (-0.106066 0.105662 -0.009245)
 );

boundary
( 
 axis
 {
   type empty ;
   faces
     (
      (0 3 7 4)
      );
 }
 back
 {
   type wall ;
   faces
     (
      (1 2 5 6)
      );
 }
 wedge-right
 {
   type wedge;
   faces
     (
      (0 1 2 3)
      );
 }
 wedge-left
 {
   type wedge;
   faces
     (
      (4 5 6 7)
      );
 }
 outer
 {
   type wall ;
   faces
     (
      (0 1 5 4)
      );
 }
 inner
 {
   type wall ;
   faces
     (
      (2 3 7 6)
      );
 }
  );

mergePatchPairs
(
);

// * * * * * * * * * * * * * * * * * * * * * * * * * * * * * * * * * * * * * //
